14
N -2.2330288   2.55144451 -1.38634393
CA -2.90088381  1.41577817 -0.67984621
C -1.91796196  0.76683419  0.28408515
O -2.17012741 -0.27643659  0.85831472
N -0.8126775   1.43373917  0.41698244
CA 0.24770673 0.96603392 1.3389828 
C 1.33977977e+00 1.27385957e-03 8.29587316e-01
O  2.3240029 -0.2114756  1.5196397
H -0.68782008  2.25889398 -0.10646432
N  1.1193604  -0.53229464 -0.35883446
CA  2.11756568 -1.4935651  -0.92858504
C  1.88949848 -2.82636255 -0.19866623
O  1.37734445 -3.78424333 -0.73480264
H  0.30724114 -0.26962    -0.85404929
