15
N -2.97313382 -0.42310459 -0.51302939
CA -2.68581526  1.04326348 -0.56581189
C -1.26084585  1.28387522 -0.04778334
O -0.47473632  1.97054546 -0.67227846
H -3.61679609 -0.76616425  0.14190772
N -0.98629143  0.69546324  1.0896039 
CA 0.35737935 0.82801103 1.73238257
C 1.42299986 0.00516982 0.98059243
O 2.59753546 0.09530276 1.28650794
H -1.67748221  0.15673734  1.5286014 
N  0.98179319 -0.76919645  0.01906855
CA  1.91503707 -1.61819518 -0.78469627
C  2.60663112 -0.76862122 -1.85800554
O  3.77086775 -0.93896358 -2.15838275
H  0.02285719 -0.79412308 -0.17867685
