15
N -1.88560052  1.67749107 -1.76103561
CA -2.60185309  1.13461959 -0.61129878
C -1.62245402  0.57360762  0.41432495
O -1.82766015 -0.5150955   0.95042144
H -1.95888021  2.63201493 -1.96561161
N -0.55741748  1.32246378  0.68101718
CA 0.44919223 0.88731657 1.64302847
C  1.20586054 -0.32476478  1.11553627
O  1.68349898 -1.15462222  1.88919612
H -0.44451664  2.18176424  0.22228631
N  1.31552842 -0.42090105 -0.20550519
CA  2.02252123 -1.53588052 -0.82408415
C  1.32719802 -2.85510291 -0.50244315
O  1.97986957 -3.87316441 -0.27470617
H  0.91471312  0.27025361 -0.77112609
