15
N 29.451000213623047 -10.611000061035156 -1.9240000247955322 
CA 30.204999923706055 -11.85200023651123 -2.069000005722046 
C 31.384000778198242 -11.878999710083008 -1.1019999980926514 
O 31.639999389648438 -12.890999794006348 -0.44999998807907104 
H 29.39299964904785 -9.993000030517578 -2.680999994277954 
N 32.09700012207031 -10.76099967956543 -1.0130000114440918 
CA 33.24599838256836 -10.668000221252441 -0.11900000274181366 
C 32.79800033569336 -10.71500015258789 1.3359999656677246 
O 33.5369987487793 -11.17199993133545 2.2079999446868896 
H 31.84600067138672 -9.984000205993652 -1.555999994277954 
N 31.584999084472656 -10.237000465393066 1.593999981880188 
CA 31.052000045776367 -10.22599983215332 2.9509999752044678 
C 30.913000106811523 -11.64900016784668 3.4830000400543213 
O 31.167999267578125 -11.91100025177002 4.6579999923706055 
H 31.04199981689453 -9.88599967956543 0.859000027179718 
