15
N -6.031000137329102 5.248000144958496 -9.892999649047852 
CA -5.103000164031982 6.306000232696533 -10.39799976348877 
C -3.7929999828338623 6.23199987411499 -9.60099983215332 
O -2.7160000801086426 6.214000225067139 -10.166000366210938 
H -6.828999996185303 5.506999969482422 -9.38599967956543 
N -3.946000099182129 6.189000129699707 -8.300999641418457 
CA -2.7709999084472656 6.114999771118164 -7.379000186920166 
C -2.121000051498413 4.7170000076293945 -7.408999919891357 
O -1.0770000219345093 4.51200008392334 -6.817999839782715 
H -4.85099983215332 6.205999851226807 -7.925000190734863 
N -2.75600004196167 3.799999952316284 -8.097999572753906 
CA -2.2290000915527344 2.4040000438690186 -8.204000473022461 
C -1.1109999418258667 2.3420000076293945 -9.251999855041504 
O -0.12700000405311584 1.6469999551773071 -9.098999977111816 
H -3.5920000076293945 4.031000137329102 -8.553000450134277 
