15
N -2.6598912   0.78826218  1.33204114
CA -1.53689817  1.43775597  2.00037224
C -0.21662436  0.81801321  1.55466272
O  0.74769435  1.52812308  1.27073164
H -3.32404838  0.30726913  1.86671671
N -0.18109972 -0.50910631  1.49379475
CA  1.02690665 -1.21330044  1.07796645
C  1.31742423 -0.95527066 -0.39477124
O  2.47178722 -0.9753019  -0.82184998
H -0.98090656 -1.02467591  1.73059615
N  0.26414334 -0.71623457 -1.169291  
CA  0.42018839 -0.46053064 -2.59614888
C  1.23323141  0.80957269 -2.8265259 
O  2.0491209   0.87846318 -3.74515093
H -0.63102811 -0.713039   -0.77314387
