14
N -2.83988013  0.45084696  2.26937306
CA -1.78759345  1.51131264  2.32426103
C -0.4749969   0.95452637  1.7918076 
O  0.49078818  1.66559092  1.58351134
N -0.50494298 -0.32705138  1.58996764
CA  0.69474296 -1.04487764  1.10137098
C  0.9348243  -1.19853754 -0.41573773
O  1.79694204 -1.96568928 -0.81368371
H -1.34047075 -0.81813805  1.76658469
N  0.15594111 -0.4669678  -1.19276608
CA  0.32684122 -0.53837636 -2.67963001
C  1.57381904  0.29834524 -3.00534221
O  1.51013111  1.38066799 -3.5455282 
H -0.53614576  0.09834794 -0.77418839
