15
N -2.46933992  1.04869226  1.44485528
CA -1.41376154  1.39722821  2.39955472
C -0.10269773  0.69701209  2.10615105
O  0.96393405  1.11322926  2.58485152
H -3.10248975  0.22379271  1.57682514
N -0.14630115 -0.40224322  1.36175518
CA  1.06348277 -1.14878013  1.02589237
C  1.4870767  -0.91696855 -0.40537004
O  2.67426253 -0.90539115 -0.74259356
H -1.09093684 -0.72036269  1.03756325
N  0.50216235 -0.76747042 -1.28955959
CA  0.77271622 -0.72392751 -2.72424624
C  0.93723784  0.69325865 -3.21923831
O  0.39584838  1.09479447 -4.25290583
H -0.47119391 -0.68286396 -0.90353493
