15
N -2.64081628  1.429561    1.22206573
CA -1.65402623  1.61176711  2.32241923
C -0.33493581  0.92617     1.95817866
O  0.73213256  1.47639487  2.14394778
H -3.42745778  0.86232304  1.35907897
N -0.39517778 -0.26994542  1.4373245 
CA  0.86140401 -0.97782769  1.06230851
C  1.19577564 -0.67474705 -0.40014011
O  2.32099007 -0.3602413  -0.73734778
H -1.26322471 -0.69885824  1.29183969
N  0.22649071 -0.75770434 -1.26886206
CA  0.48698105 -0.4648936  -2.7067135 
C  1.88862849 -0.92988441 -3.0944091 
O  2.67877634 -0.16619185 -3.61331079
H -0.67554029 -1.00592209 -0.97637971
