15
N -6.03100013733 5.24800014496 -9.89299964905 
CA -5.10300016403 6.3060002327 -10.3979997635 
C -3.79299998283 6.23199987411 -9.60099983215 
O -2.71600008011 6.21400022507 -10.1660003662 
H -6.82899999619 5.50699996948 -9.38599967957 
N -3.94600009918 6.1890001297 -8.30099964142 
CA -2.77099990845 6.11499977112 -7.37900018692 
C -2.1210000515 4.71700000763 -7.40899991989 
O -1.07700002193 4.51200008392 -6.81799983978 
H -4.85099983215 6.20599985123 -7.92500019073 
N -2.75600004196 3.79999995232 -8.09799957275 
CA -2.22900009155 2.40400004387 -8.20400047302 
C -1.11099994183 2.34200000763 -9.25199985504 
O -0.127000004053 1.64699995518 -9.09899997711 
H -3.59200000763 4.03100013733 -8.55300045013 
