15
N 8.5389995575 -1.12699997425 -3.71000003815 
CA 8.76599979401 -1.43599998951 -5.14900016785 
C 10.1979999542 -1.06500005722 -5.54199981689 
O 10.8780002594 -1.81099998951 -6.21799993515 
H 7.93300008774 -0.400999993086 -3.45499992371 
N 10.6660003662 0.0799999982119 -5.12300014496 
CA 12.0559997559 0.485000014305 -5.47599983215 
C 13.0129995346 0.0219999998808 -4.375 
O 14.0570001602 -0.541000008583 -4.64300012589 
H 10.1059999466 0.669000029564 -4.57700014114 
N 12.6619997025 0.246000006795 -3.13899993896 
CA 13.5469999313 -0.189999997616 -2.02200007439 
C 15.0129995346 -0.0529999993742 -2.42600011826 
O 15.7740001678 -0.996999979019 -2.34500002861 
H 11.8129997253 0.694999992847 -2.9430000782 
